
     RDKit          3D

 12 12  0  0  0  0  0  0  0  0999 V2000
  -18.2714    2.6273    1.5603 C   0  0  0  0  0  0  0  0  0  0  0  0
  -17.7314    3.6837    1.5664 C   0  0  0  0  0  0  0  0  0  0  0  0
  -17.6966    5.0075    2.7862 C   0  0  0  0  0  0  0  0  0  0  0  0
  -18.9493    3.8902    2.5047 C   0  0  0  0  0  0  0  0  0  0  0  0
  -19.1392    3.1621    2.5485 C   0  0  0  0  0  0  0  0  0  0  0  0
  -18.1283    1.2084    1.4344 C   0  0  0  0  0  0  0  0  0  0  0  0
  -14.9864    1.6798    1.4944 H   0  0  0  0  0  0  0  0  0  0  0  0
  -14.1872    2.9386    1.4730 H   0  0  0  0  0  0  0  0  0  0  0  0
  -15.0150    5.0544    2.5117 H   0  0  0  0  0  0  0  0  0  0  0  0
  -16.5719    4.2942    2.5243 H   0  0  0  0  0  0  0  0  0  0  0  0
  -16.6357    3.1677    3.3072 H   0  0  0  0  0  0  0  0  0  0  0  0
  -15.1769   -1.1284    0.3520 H   0  0  0  0  0  0  0  0  0  0  0  0
  1  2  2  0
  2  3  1  0
  3  4  2  0
  4  5  1  0
  5  6  2  0
  6  1  1  0
  1  7  1  0
  2  8  1  0
  3  9  1  0
  4 10  1  0
  5 11  1  0
  6 12  1  0
M  END
$$$$
