
     RDKit          3D

 12 12  0  0  0  0  0  0  0  0999 V2000
    0.7503   -1.1777   -0.0862 C   0  0  0  0  0  0  0  0  0  0  0  0
    1.3927    0.0647   -0.1158 C   0  0  0  0  0  0  0  0  0  0  0  0
    0.6425    1.2424   -0.0296 C   0  0  0  0  0  0  0  0  0  0  0  0
   -0.7503    1.1777    0.0862 C   0  0  0  0  0  0  0  0  0  0  0  0
   -1.3927   -0.0647    0.1158 C   0  0  0  0  0  0  0  0  0  0  0  0
   -0.6425   -1.2424    0.0296 C   0  0  0  0  0  0  0  0  0  0  0  0
    1.3307   -2.0888   -0.1529 H   0  0  0  0  0  0  0  0  0  0  0  0
    2.4702    0.1148   -0.2053 H   0  0  0  0  0  0  0  0  0  0  0  0
    1.1395    2.2036   -0.0524 H   0  0  0  0  0  0  0  0  0  0  0  0
   -1.3307    2.0888    0.1529 H   0  0  0  0  0  0  0  0  0  0  0  0
   -2.4702   -0.1148    0.2053 H   0  0  0  0  0  0  0  0  0  0  0  0
   -1.1395   -2.2036    0.0524 H   0  0  0  0  0  0  0  0  0  0  0  0
  1  2  2  0
  2  3  1  0
  3  4  2  0
  4  5  1  0
  5  6  2  0
  6  1  1  0
  1  7  1  0
  2  8  1  0
  3  9  1  0
  4 10  1  0
  5 11  1  0
  6 12  1  0
M  END
$$$$
