
     RDKit          3D

 15 15  0  0  0  0  0  0  0  0999 V2000
    2.1884   -0.3819    0.0033 C   0  0  0  0  0  0  0  0  0  0  0  0
    0.7106   -0.1275   -0.0289 C   0  0  0  0  0  0  0  0  0  0  0  0
   -0.1940   -1.1900    0.1301 C   0  0  0  0  0  0  0  0  0  0  0  0
   -1.5713   -0.9465    0.1371 C   0  0  0  0  0  0  0  0  0  0  0  0
   -2.0527    0.3584   -0.0015 C   0  0  0  0  0  0  0  0  0  0  0  0
   -1.1574    1.4225   -0.1423 C   0  0  0  0  0  0  0  0  0  0  0  0
    0.2205    1.1831   -0.1497 C   0  0  0  0  0  0  0  0  0  0  0  0
    2.5505   -0.3216    1.0508 H   0  0  0  0  0  0  0  0  0  0  0  0
    2.4215   -1.3890   -0.4034 H   0  0  0  0  0  0  0  0  0  0  0  0
    2.7288    0.3697   -0.6108 H   0  0  0  0  0  0  0  0  0  0  0  0
    0.1662   -2.2046    0.2479 H   0  0  0  0  0  0  0  0  0  0  0  0
   -2.2652   -1.7689    0.2538 H   0  0  0  0  0  0  0  0  0  0  0  0
   -3.1187    0.5455    0.0054 H   0  0  0  0  0  0  0  0  0  0  0  0
   -1.5311    2.4335   -0.2418 H   0  0  0  0  0  0  0  0  0  0  0  0
    0.9038    2.0174   -0.2501 H   0  0  0  0  0  0  0  0  0  0  0  0
  1  2  1  0
  2  3  2  0
  3  4  1  0
  4  5  2  0
  5  6  1  0
  6  7  2  0
  7  2  1  0
  1  8  1  0
  1  9  1  0
  1 10  1  0
  3 11  1  0
  4 12  1  0
  5 13  1  0
  6 14  1  0
  7 15  1  0
M  END
$$$$
