
     RDKit          3D

 15 15  0  0  0  0  0  0  0  0999 V2000
  -13.9421    3.6954    3.0640 C   0  0  0  0  0  0  0  0  0  0  0  0
  -15.0791    3.1515    2.2728 C   0  0  0  0  0  0  0  0  0  0  0  0
  -15.8189    2.0695    2.7632 C   0  0  0  0  0  0  0  0  0  0  0  0
  -16.8688    1.5385    2.0061 C   0  0  0  0  0  0  0  0  0  0  0  0
  -17.1728    2.0822    0.7536 C   0  0  0  0  0  0  0  0  0  0  0  0
  -16.4241    3.1540    0.2561 C   0  0  0  0  0  0  0  0  0  0  0  0
  -15.3741    3.6850    1.0132 C   0  0  0  0  0  0  0  0  0  0  0  0
  -14.1450    3.5707    4.1474 H   0  0  0  0  0  0  0  0  0  0  0  0
  -13.0132    3.1508    2.7973 H   0  0  0  0  0  0  0  0  0  0  0  0
  -13.8135    4.7749    2.8430 H   0  0  0  0  0  0  0  0  0  0  0  0
  -15.5791    1.6418    3.7276 H   0  0  0  0  0  0  0  0  0  0  0  0
  -17.4436    0.7047    2.3881 H   0  0  0  0  0  0  0  0  0  0  0  0
  -17.9843    1.6706    0.1674 H   0  0  0  0  0  0  0  0  0  0  0  0
  -16.6547    3.5703   -0.7159 H   0  0  0  0  0  0  0  0  0  0  0  0
  -14.7900    4.5079    0.6230 H   0  0  0  0  0  0  0  0  0  0  0  0
  1  2  1  0
  2  3  2  0
  3  4  1  0
  4  5  2  0
  5  6  1  0
  6  7  2  0
  7  2  1  0
  1  8  1  0
  1  9  1  0
  1 10  1  0
  3 11  1  0
  4 12  1  0
  5 13  1  0
  6 14  1  0
  7 15  1  0
M  END
$$$$
